[General]
network = Delegate_selection_on_BFT
sim-time-limit = 1000s