[General]
network = Delegate_selection_on_HotStuff_2
sim-time-limit = 1000s